# generated using pymatgen
data_LiNiO2
_symmetry_space_group_name_H-M   'P 1'
_cell_length_a   2.96984800
_cell_length_b   2.96984816
_cell_length_c   5.14392808
_cell_angle_alpha   73.22134967
_cell_angle_beta   73.22134663
_cell_angle_gamma   60.00000180
_symmetry_Int_Tables_number   1
_chemical_formula_structural   LiCoO0.9375F0.0625
_chemical_formula_sum   'Li Co O0.9375 F0.0625'
_cell_volume   37.0439886939
_cell_formula_units_Z   1
loop_
 _symmetry_equiv_pos_site_id
 _symmetry_equiv_pos_as_xyz
  1  'x, y, z'
loop_
 _atom_type_symbol
 _atom_type_oxidation_number
  Li+  1.0
  Co2+  2.0
  Co3+  3.0
  O2-  -2.0
  F-   -1.0
loop_
 _atom_site_type_symbol
 _atom_site_label
 _atom_site_symmetry_multiplicity
 _atom_site_fract_x
 _atom_site_fract_y
 _atom_site_fract_z
 _atom_site_occupancy
  Li+  Li1  1  0.000000  0.000000  0.000000  1.000
  Co2+  Co2  1  0.500000  0.500000  0.500000 0.125
  Co3+  Co3  1  0.500000  0.500000  0.500000 0.875
  O2-  O1  1  0.250000  0.250000  0.250000  0.9375
  F-  F1  1  0.250000  0.250000  0.250000  0.0625
  O2-  O2  1  0.750000  0.750000  0.750000  0.9375
  F-  F2  1  0.750000  0.750000  0.750000  0.0625
